@<TRIPOS>MOLECULE
DAM
   73    74     1     0     0
SMALL
bcc


@<TRIPOS>ATOM
      1 N1         119.0320   149.3530   141.1680 nz         1 DAM      -0.839600
      2 C1         119.6270   150.6580   140.9110 c3         1 DAM       0.051500
      3 C2         118.6340   151.7250   141.3300 c          1 DAM       0.656100
      4 O1         117.4400   151.4590   141.4050 o          1 DAM      -0.599100
      5 C3         119.9900   150.8080   139.4380 c3         1 DAM      -0.037100
      6 C4         120.8650   151.9930   139.1430 ca         1 DAM      -0.174300
      7 C5         122.2130   151.9680   139.4530 ca         1 DAM      -0.078500
      8 C6         120.3490   153.1360   138.5580 ca         1 DAM      -0.078500
      9 C7         123.0260   153.0500   139.1910 ca         1 DAM      -0.182000
     10 C8         121.1570   154.2270   138.2890 ca         1 DAM      -0.182000
     11 C9         122.4940   154.1750   138.6060 ca         1 DAM       0.157100
     12 O2         123.3020   155.2540   138.3420 oh         1 DAM      -0.480100
     13 N2         119.1160   152.9280   141.6170 ns         1 DAM      -0.535900
     14 C10        118.2260   154.0020   142.0290 c3         1 DAM       0.037700
     15 C11        118.7370   155.3380   141.5360 c3         1 DAM      -0.106100
     16 C12        118.1250   154.0010   143.5340 c          1 DAM       0.621100
     17 O3         118.5380   154.9550   144.1850 o          1 DAM      -0.571100
     18 N3         117.5950   152.9110   144.0820 ns         1 DAM      -0.531900
     19 C13        117.5510   152.6990   145.5170 c3         1 DAM       0.018000
     20 C14        118.9440   152.6300   146.1190 c          1 DAM       0.656100
     21 O4         119.8930   152.3610   145.3810 o          1 DAM      -0.705100
     22 C15        117.9390   152.9910   148.3470 c3         1 DAM       0.067300
     23 N4         119.0470   152.8470   147.4370 n          1 DAM      -0.450800
     24 C16        120.3050   153.1440   148.1280 c3         1 DAM       0.054700
     25 C17        120.8810   154.3940   147.4850 c          1 DAM       0.667100
     26 O5         121.6640   154.4290   146.5380 o          1 DAM      -0.704100
     27 C18        121.3940   152.0510   148.1250 c3         1 DAM      -0.038100
     28 C19        120.9100   150.6690   147.9240 ca         1 DAM      -0.105300
     29 C20        120.0380   150.0850   148.8430 ca         1 DAM      -0.127500
     30 C21        119.5980   148.7860   148.6460 ca         1 DAM      -0.122000
     31 C22        120.0420   148.0640   147.5440 ca         1 DAM      -0.115000
     32 C23        120.9180   148.6370   146.6270 ca         1 DAM      -0.122000
     33 C24        121.3530   149.9410   146.8210 ca         1 DAM      -0.127500
     34 C25        120.8910   156.7020   147.5630 c3         1 DAM       0.047000
     35 N5         120.2530   155.5120   148.1160 ns         1 DAM      -0.535900
     36 C26        120.0600   157.3670   146.4420 c3         1 DAM       0.109400
     37 O6         119.0370   158.1870   147.0810 oh         1 DAM      -0.595800
     38 H1         119.6860   148.6210   140.8920 hn         1 DAM       0.479467
     39 H2         118.1710   149.2600   140.6300 hn         1 DAM       0.479467
     40 H3         118.8230   149.2650   142.1620 hn         1 DAM       0.479467
     41 H4         120.5310   150.7610   141.4740 hx         1 DAM       0.114700
     42 H5         120.5050   149.9230   139.1260 hc         1 DAM       0.078200
     43 H6         119.0740   150.9590   138.9070 hc         1 DAM       0.078200
     44 H7         122.6170   151.1240   139.8880 ha         1 DAM       0.136500
     45 H8         119.3460   153.1760   138.3190 ha         1 DAM       0.136500
     46 H9         124.0290   153.0160   139.4330 ha         1 DAM       0.159000
     47 H10        120.7590   155.0740   137.8540 ha         1 DAM       0.159000
     48 H11        122.9430   156.0220   137.9430 ho         1 DAM       0.434000
     49 H12        120.0840   153.0950   141.5500 hn         1 DAM       0.338500
     50 H13        117.2570   153.8440   141.6030 h1         1 DAM       0.100700
     51 H14        119.7070   155.5230   141.9480 hc         1 DAM       0.068033
     52 H15        118.0660   156.1120   141.8440 hc         1 DAM       0.068033
     53 H16        118.8000   155.3240   140.4680 hc         1 DAM       0.068033
     54 H17        117.2170   152.2200   143.4900 hn         1 DAM       0.332500
     55 H18        117.0420   151.7790   145.7160 h1         1 DAM       0.102700
     56 H19        117.0370   153.5260   145.9600 h1         1 DAM       0.102700
     57 H20        117.0260   152.7720   147.8340 h1         1 DAM       0.059033
     58 H21        117.9090   153.9950   148.7170 h1         1 DAM       0.059033
     59 H22        118.0590   152.3130   149.1660 h1         1 DAM       0.059033
     60 H23        120.0440   153.2460   149.1610 h1         1 DAM       0.084700
     61 H24        122.0840   152.2760   147.3390 hc         1 DAM       0.070200
     62 H25        121.8310   152.0700   149.1020 hc         1 DAM       0.070200
     63 H26        119.7210   150.6190   149.6670 ha         1 DAM       0.129500
     64 H27        118.9420   148.3550   149.3160 ha         1 DAM       0.142000
     65 H28        119.7190   147.0940   147.4050 ha         1 DAM       0.145000
     66 H29        121.2420   148.0970   145.8090 ha         1 DAM       0.142000
     67 H30        122.0050   150.3720   146.1470 ha         1 DAM       0.129500
     68 H31        121.0300   157.4120   148.3510 h1         1 DAM       0.060200
     69 H32        121.8220   156.3960   147.1330 h1         1 DAM       0.060200
     70 H33        119.5340   155.4850   148.7880 hn         1 DAM       0.336500
     71 H34        120.6920   157.9800   145.8340 h1         1 DAM       0.065700
     72 H35        119.6110   156.6250   145.8160 h1         1 DAM       0.065700
     73 H36        119.4620   158.8530   147.6440 ho         1 DAM       0.410000
@<TRIPOS>BOND
     1     1     2 1   
     2     1    38 1   
     3     1    39 1   
     4     1    40 1   
     5     2     3 1   
     6     2     5 1   
     7     2    41 1   
     8     3     4 2   
     9     3    13 1   
    10     5     6 1   
    11     5    42 1   
    12     5    43 1   
    13     6     7 ar  
    14     6     8 ar  
    15     7     9 ar  
    16     7    44 1   
    17     8    10 ar  
    18     8    45 1   
    19     9    11 ar  
    20     9    46 1   
    21    10    11 ar  
    22    10    47 1   
    23    11    12 1   
    24    12    48 1   
    25    13    14 1   
    26    13    49 1   
    27    14    15 1   
    28    14    16 1   
    29    14    50 1   
    30    15    51 1   
    31    15    52 1   
    32    15    53 1   
    33    16    17 2   
    34    16    18 1   
    35    18    19 1   
    36    18    54 1   
    37    19    20 1   
    38    19    55 1   
    39    19    56 1   
    40    20    21 2   
    41    20    23 1   
    42    22    23 1   
    43    22    57 1   
    44    22    58 1   
    45    22    59 1   
    46    23    24 1   
    47    24    25 1   
    48    24    27 1   
    49    24    60 1   
    50    25    26 2   
    51    25    35 1   
    52    27    28 1   
    53    27    61 1   
    54    27    62 1   
    55    28    29 ar  
    56    28    33 ar  
    57    29    30 ar  
    58    29    63 1   
    59    30    31 ar  
    60    30    64 1   
    61    31    32 ar  
    62    31    65 1   
    63    32    33 ar  
    64    32    66 1   
    65    33    67 1   
    66    34    35 1   
    67    34    36 1   
    68    34    68 1   
    69    34    69 1   
    70    35    70 1   
    71    36    37 1   
    72    36    71 1   
    73    36    72 1   
    74    37    73 1   
@<TRIPOS>SUBSTRUCTURE
     1 DAM         1 TEMP              0 ****  ****    0 ROOT
